ca_results/summer/rts_gmlc_export_13_40_summer_v35_N1_lines.csv
Contingency,Converged,FromBus#,ToBus#,CKT,Pij(MW),Qij(MVAr),Sij(MVA),Pji(MW),Qji(MVAr),Sji(MVA),RateA,Ploss(MW),Qloss(MVAr),Loading_%,Violation
LT_101-102_A1,True,101.0,103.0,A2,70.836411,-0.626018,70.839172,-67.862442,12.035242,68.921391,175.0,2.973968,11.409224,40.48,False
LT_101-102_A1,True,101.0,105.0,A3,100.87458,-11.180667,101.49231,-98.439932,20.587263,100.569656,175.0,2.434648,9.406596,58.0,False
LT_101-102_A1,True,102.0,104.0,A4,64.102921,5.697978,64.355659,-62.626677,-0.016676,62.626679,175.0,1.476244,5.681302,36.77,False
LT_101-102_A1,True,102.0,106.0,A5,60.408073,-8.938627,61.065823,-58.424205,16.556681,60.724883,175.0,1.983868,7.618053,34.89,False
LT_101-102_A1,True,103.0,109.0,A6,-24.746557,-6.001321,25.463856,24.972868,6.870061,25.900615,175.0,0.22631,0.86874,14.55,False
LT_101-102_A1,True,103.0,124.0,A7,-61.206009,-32.531162,69.314156,61.316711,37.180642,71.708711,400.0,0.110702,4.64948,17.33,False
LT_101-102_A1,True,104.0,109.0,A8,-0.608331,-9.728178,9.74718,0.63068,9.814263,9.834506,175.0,0.022349,0.086085,5.57,False
LT_101-102_A1,True,105.0,110.0,A9,37.768929,-30.435631,48.505871,-37.190808,32.647571,49.487575,175.0,0.578121,2.21194,27.72,False
LT_101-102_A1,True,106.0,110.0,10,-57.791805,-126.762917,139.315216,58.338924,129.14679,141.712115,175.0,0.547119,2.383874,79.61,False
LT_101-102_A1,True,107.0,108.0,11,89.924179,21.033386,92.351295,-88.451052,-15.417088,89.784604,175.0,1.473127,5.616298,52.77,False
LT_101-102_A1,True,107.0,203.0,B1,158.259796,-1.245568,158.264694,-146.948452,44.605721,153.569261,175.0,11.311344,43.360153,90.44,False
LT_101-102_A1,True,108.0,109.0,1,-27.825859,0.862592,27.839226,28.20889,0.607178,28.215424,175.0,0.383031,1.46977,15.91,False
LT_101-102_A1,True,108.0,110.0,2,-29.847092,-13.816525,32.889896,30.35189,15.753541,34.196656,175.0,0.504798,1.937016,18.79,False
LT_101-102_A1,True,109.0,111.0,14,-78.827911,-13.243619,79.932678,78.97062,19.237387,81.279985,400.0,0.142709,5.993768,19.98,False
LT_101-102_A1,True,109.0,112.0,15,-124.526535,-25.516733,127.113976,124.887436,40.674589,131.344181,400.0,0.360901,15.157856,31.78,False
LT_101-102_A1,True,110.0,111.0,16,-85.545921,17.664465,87.350662,85.707163,-10.892335,86.396532,400.0,0.161241,6.77213,21.84,False
LT_101-102_A1,True,110.0,112.0,17,-132.587082,5.268709,132.691711,132.959158,10.358471,133.362047,400.0,0.372076,15.62718,33.17,False
LT_101-102_A1,True,111.0,113.0,18,-256.701355,6.842515,256.792511,260.980209,27.388316,262.413394,500.0,4.278854,34.230831,51.36,False
LT_101-102_A1,True,111.0,114.0,19,92.023575,-15.187568,93.268433,-91.559583,19.085099,93.527527,500.0,0.463992,3.897531,18.65,False
LT_101-102_A1,True,112.0,113.0,20,-179.360733,19.397886,180.406631,181.416451,-2.952139,181.44047,500.0,2.055718,16.445747,36.08,False
LT_101-102_A1,True,112.0,123.0,21,-78.485855,-70.430946,105.454018,79.721972,80.422892,113.240604,500.0,1.236117,9.991945,21.09,False
LT_101-102_A1,True,113.0,123.0,22,18.662611,-88.581612,90.526215,-17.89446,94.656986,96.33357,500.0,0.768151,6.075375,18.11,False
LT_101-102_A1,True,113.0,215.0,B2,282.629547,-49.499939,286.931519,-274.146606,113.121998,296.568623,500.0,8.482941,63.622059,57.39,False
LT_101-102_A1,True,114.0,116.0,23,-74.218407,-44.256523,86.411873,74.603508,48.800717,89.147032,500.0,0.385101,4.544194,17.28,False
LT_101-102_A1,True,115.0,116.0,24,-106.102264,-26.744102,109.420921,106.346654,28.821414,110.18296,500.0,0.24439,2.077312,21.88,False
LT_101-102_A1,True,115.0,121.0,1,-35.730247,3.391044,35.890804,35.813372,-2.712192,35.915924,500.0,0.083125,0.678852,7.18,False
LT_101-102_A1,True,115.0,121.0,2,-35.730247,3.391044,35.890804,35.813372,-2.712192,35.915924,500.0,0.083125,0.678852,7.18,False
LT_101-102_A1,True,115.0,124.0,26,61.677731,29.499834,68.369453,-61.316711,-26.817973,66.924903,500.0,0.36102,2.681861,13.67,False
LT_101-102_A1,True,116.0,117.0,27,-7.616892,18.501068,20.007662,7.632354,-18.367064,19.889743,500.0,0.015462,0.134004,4.0,False
LT_101-102_A1,True,116.0,119.0,28,-103.786278,-59.295815,119.530693,104.212667,62.5648,121.550953,500.0,0.426389,3.268986,23.91,False
LT_101-102_A1,True,117.0,118.0,29,4.249835,39.766148,39.992596,-4.214596,-39.519474,39.743574,500.0,0.035239,0.246673,8.0,False
LT_101-102_A1,True,117.0,122.0,30,-11.882191,-16.007742,19.935755,11.906398,16.189298,20.096161,500.0,0.024208,0.181557,3.99,False
LT_101-102_A1,True,118.0,121.0,1,7.097293,-14.04056,15.732415,-7.091683,14.08918,15.773299,500.0,0.00561,0.04862,3.15,False
LT_101-102_A1,True,118.0,121.0,2,7.097293,-14.04056,15.732415,-7.091683,14.08918,15.773299,500.0,0.00561,0.04862,3.15,False
LT_101-102_A1,True,119.0,120.0,1,-129.440857,-44.636425,136.920944,130.343397,51.856749,140.280161,500.0,0.90254,7.220324,27.38,False
LT_101-102_A1,True,119.0,120.0,2,-129.440857,-44.636425,136.920944,130.343397,51.856749,140.280161,500.0,0.90254,7.220324,27.38,False
LT_101-102_A1,True,120.0,123.0,1,-185.033386,-54.310585,192.839294,186.071741,61.925187,196.105639,500.0,1.038355,7.614602,38.57,False
LT_101-102_A1,True,120.0,123.0,2,-185.033386,-54.310585,192.839294,186.071741,61.925187,196.105639,500.0,1.038355,7.614602,38.57,False
LT_101-102_A1,True,121.0,122.0,34,-21.736094,-18.987392,28.861374,21.793605,19.421923,29.19199,500.0,0.057511,0.43453,5.77,False
LT_101-102_A1,True,121.0,325.0,1,364.292725,35.805614,366.048126,-347.596882,99.152454,361.462033,500.0,16.695843,134.958069,73.21,False
LT_101-102_A1,True,123.0,217.0,B3,236.029007,-1.857636,236.036331,-230.971918,39.280095,234.288183,500.0,5.057089,37.422459,47.21,False
LT_101-102_A1,True,201.0,202.0,B1,17.208382,-30.562037,35.07373,-17.195589,30.621736,35.119496,175.0,0.012793,0.059699,20.04,False
LT_101-102_A1,True,201.0,203.0,B2,-56.467949,26.845253,62.524372,58.918981,-17.442203,61.446536,175.0,2.451032,9.40305,35.73,False
LT_101-102_A1,True,201.0,205.0,B3,64.259583,-16.441706,66.329659,-63.203972,20.520203,66.451642,175.0,1.055611,4.078497,37.9,False
LT_101-102_A1,True,202.0,204.0,B4,33.646534,6.476708,34.264221,-33.213415,-4.809857,33.559882,175.0,0.433119,1.666851,19.58,False
LT_101-102_A1,True,202.0,206.0,B5,50.138069,-14.389227,52.162014,-48.680107,19.9878,52.623806,175.0,1.457962,5.598573,29.81,False
LT_101-102_A1,True,203.0,209.0,B6,113.282524,-33.177666,118.041039,-108.344468,52.13343,120.234846,175.0,4.938056,18.955765,67.45,False
LT_101-102_A1,True,203.0,224.0,B7,-183.748047,-17.537584,184.583084,184.532139,50.469431,191.309366,400.0,0.784092,32.931847,46.15,False
LT_101-102_A1,True,204.0,209.0,B8,-31.945562,-5.36715,32.393291,32.267129,6.605779,32.936362,175.0,0.321567,1.238628,18.51,False
LT_101-102_A1,True,205.0,210.0,B9,0.685987,-30.752396,30.760046,-0.463931,31.602004,31.60541,175.0,0.222057,0.849609,17.58,False
LT_101-102_A1,True,206.0,210.0,10,-71.071846,-131.796341,149.738037,71.895,135.38294,153.28872,175.0,0.823154,3.586599,85.56,False
LT_101-102_A1,True,207.0,208.0,11,-0.06652,15.988316,15.988454,0.119117,-15.787788,15.788238,175.0,0.052597,0.200527,9.14,False
LT_101-102_A1,True,208.0,209.0,1,-86.112572,7.532484,86.441383,90.003742,7.398752,90.307337,175.0,3.891171,14.931236,49.4,False
LT_101-102_A1,True,208.0,210.0,2,-64.575417,-21.136896,67.946693,66.930417,30.173525,73.417452,175.0,2.355,9.036629,38.83,False
LT_101-102_A1,True,209.0,211.0,14,-86.657768,-34.79491,93.382301,86.851862,42.946849,96.890029,400.0,0.194094,8.151938,23.35,False
LT_101-102_A1,True,209.0,212.0,15,-81.361717,-53.848595,97.567413,81.573598,62.747597,102.915076,400.0,0.211881,8.899002,24.39,False
LT_101-102_A1,True,210.0,211.0,16,-157.178741,12.750931,157.695084,157.69453,8.912184,157.946167,400.0,0.515788,21.663115,39.42,False
LT_101-102_A1,True,210.0,212.0,17,-152.885788,-7.280476,153.059036,153.371695,27.688578,155.851,400.0,0.485907,20.408102,38.26,False
LT_101-102_A1,True,211.0,213.0,18,-60.108406,-95.121994,112.522064,60.83811,100.959626,117.873329,500.0,0.729704,5.837632,22.5,False
LT_101-102_A1,True,211.0,214.0,19,-184.438034,43.262978,189.444122,186.313056,-27.51279,188.333504,500.0,1.875022,15.750188,37.89,False
LT_101-102_A1,True,212.0,213.0,20,-70.36042,-61.212303,93.260574,70.84717,65.106298,96.219289,500.0,0.486749,3.893995,18.65,False
LT_101-102_A1,True,212.0,223.0,21,-164.584946,-29.223759,167.159302,167.879988,55.858685,176.929034,500.0,3.295042,26.634926,33.43,False
LT_101-102_A1,True,213.0,223.0,22,-149.465286,-3.578792,149.508133,151.778566,21.874732,153.346787,500.0,2.31328,18.29594,29.9,False
LT_101-102_A1,True,214.0,216.0,23,-357.136047,1.619444,357.139709,363.832489,77.398561,371.973947,500.0,6.696441,79.018005,71.43,False
LT_101-102_A1,True,215.0,216.0,24,330.26828,-64.913429,336.587128,-328.045441,83.807562,338.581628,500.0,2.222839,18.894133,67.32,False
LT_101-102_A1,True,215.0,221.0,1,-134.244827,-55.438244,145.241425,135.456455,65.333203,150.389091,500.0,1.211628,9.894959,29.05,False
LT_101-102_A1,True,215.0,221.0,2,-134.244827,-55.438244,145.241425,135.456455,65.333203,150.389091,500.0,1.211628,9.894959,29.05,False
LT_101-102_A1,True,215.0,224.0,26,187.239899,59.952415,196.603851,-184.532145,-39.837677,188.78335,500.0,2.707753,20.114738,39.32,False
LT_101-102_A1,True,216.0,217.0,27,-372.252716,-28.348557,373.330566,376.312809,63.53603,381.638779,500.0,4.060093,35.187473,74.67,False
LT_101-102_A1,True,216.0,219.0,28,403.412628,-58.662247,407.655518,-398.574763,95.752548,409.915104,500.0,4.837865,37.090302,81.53,False
LT_101-102_A1,True,217.0,218.0,29,-129.778473,-58.809364,142.481552,130.153179,61.43231,143.922822,500.0,0.374707,2.622946,28.5,False
LT_101-102_A1,True,217.0,222.0,30,-15.562465,-21.360752,26.428621,15.60581,21.68584,26.717353,500.0,0.043345,0.325088,5.29,False
LT_101-102_A1,True,218.0,221.0,1,-34.184601,15.972425,37.732018,34.226484,-15.609438,37.617905,500.0,0.041883,0.362988,7.55,False
LT_101-102_A1,True,218.0,221.0,2,-34.184601,15.972425,37.732018,34.226484,-15.609438,37.617905,500.0,0.041883,0.362988,7.55,False
LT_101-102_A1,True,219.0,220.0,1,119.599411,-61.633247,134.546188,-118.752949,68.40494,137.045609,500.0,0.846462,6.771693,26.91,False
LT_101-102_A1,True,219.0,220.0,2,119.599411,-61.633247,134.546188,-118.752949,68.40494,137.045609,500.0,0.846462,6.771693,26.91,False
LT_101-102_A1,True,220.0,223.0,1,62.398956,-71.076157,94.580391,-62.159108,72.835045,95.753321,500.0,0.239848,1.758888,18.92,False
LT_101-102_A1,True,220.0,223.0,2,62.398956,-71.076157,94.580391,-62.159108,72.835045,95.753321,500.0,0.239848,1.758888,18.92,False
LT_101-102_A1,True,221.0,222.0,34,15.634144,-17.617384,23.554165,-15.605809,17.831471,23.696046,500.0,0.028335,0.214087,4.71,False
LT_101-102_A1,True,223.0,318.0,1,134.659683,62.859463,148.608688,-131.860438,-40.465502,137.929808,500.0,2.799245,22.393961,29.72,False
LT_101-102_A1,True,301.0,302.0,C1,10.69473,-31.722664,33.476929,-10.687466,31.75656,33.506731,175.0,0.007263,0.033896,19.13,False
LT_101-102_A1,True,301.0,303.0,C2,-13.981652,17.456202,22.365276,14.33854,-16.087052,21.549639,175.0,0.356887,1.36915,12.78,False
LT_101-102_A1,True,301.0,305.0,C3,33.798969,0.528097,33.803093,-33.526103,0.52616,33.530231,175.0,0.272867,1.054257,19.32,False
LT_101-102_A1,True,302.0,304.0,C4,20.699753,16.392069,26.40416,-20.431854,-15.361062,25.562138,175.0,0.267899,1.031006,15.09,False
LT_101-102_A1,True,302.0,306.0,C5,28.595757,-3.842744,28.8528,-28.152807,5.54367,28.693428,175.0,0.442949,1.700926,16.49,False
LT_101-102_A1,True,303.0,309.0,C6,16.997772,-10.919429,20.202927,-16.860244,11.447359,20.379153,175.0,0.137528,0.52793,11.54,False
LT_101-102_A1,True,303.0,324.0,C7,-163.816269,4.847125,163.88797,164.443253,21.486197,165.841008,400.0,0.626984,26.333323,40.97,False
LT_101-102_A1,True,304.0,309.0,C8,-34.032063,7.368878,34.820705,34.415477,-5.892024,34.916199,175.0,0.383414,1.476855,19.9,False
LT_101-102_A1,True,305.0,310.0,C9,-18.729843,-8.726265,20.662884,18.833659,9.123475,20.927124,175.0,0.103816,0.39721,11.81,False
LT_101-102_A1,True,306.0,310.0,10,-71.943077,-111.968292,133.089081,72.743125,115.454213,136.459655,175.0,0.800048,3.485921,76.05,False
LT_101-102_A1,True,307.0,308.0,11,-47.998688,19.607683,51.849155,48.542891,-17.53291,51.612161,175.0,0.544203,2.074774,29.63,False
LT_101-102_A1,True,308.0,309.0,1,-91.424454,7.423304,91.725334,96.018237,10.204002,96.558912,175.0,4.593783,17.627306,52.41,False
LT_101-102_A1,True,308.0,310.0,2,-82.971832,-14.299769,84.195068,86.802814,29.000045,91.51902,175.0,3.830981,14.700275,48.11,False
LT_101-102_A1,True,309.0,311.0,14,-103.361526,-18.236542,104.957977,103.614878,28.877316,107.563667,400.0,0.253352,10.640774,26.24,False
LT_101-102_A1,True,309.0,312.0,15,-139.012695,-15.089541,139.829269,139.46236,33.975474,143.541223,400.0,0.449665,18.885933,34.96,False
LT_101-102_A1,True,310.0,311.0,16,-142.592529,22.066425,144.289825,143.040795,-3.239277,143.077468,400.0,0.448265,18.827148,36.07,False
LT_101-102_A1,True,310.0,312.0,17,-179.307724,26.559513,181.264084,180.01516,3.152813,180.042768,400.0,0.707436,29.712326,45.32,False
LT_101-102_A1,True,311.0,313.0,18,-172.487915,-56.719284,181.574112,174.621071,73.784533,189.569712,500.0,2.133156,17.065248,36.31,False
LT_101-102_A1,True,311.0,314.0,19,-74.16803,31.08139,80.417343,74.536613,-27.985289,79.617103,500.0,0.368584,3.096102,16.08,False
LT_101-102_A1,True,312.0,313.0,20,-107.210754,-66.293243,126.051346,108.212638,74.308309,131.269569,500.0,1.001883,8.015065,25.21,False
LT_101-102_A1,True,312.0,323.0,21,-212.26712,29.164993,214.261337,218.360885,20.092937,219.283384,500.0,6.093765,49.257931,42.85,False
LT_101-102_A1,True,313.0,323.0,22,-188.293762,62.243851,198.314987,192.786566,-26.709858,194.628047,500.0,4.492804,35.533993,39.66,False
LT_101-102_A1,True,314.0,316.0,23,-217.320633,7.22753,217.440796,219.972812,24.06819,221.285598,500.0,2.652179,31.295719,43.49,False
LT_101-102_A1,True,315.0,316.0,24,22.922775,13.952639,26.835234,-22.906162,-13.811425,26.747854,500.0,0.016613,0.141213,5.37,False
LT_101-102_A1,True,315.0,321.0,1,-128.929001,4.54669,129.00914,130.011354,4.292526,130.082197,500.0,1.082353,8.839215,25.8,False
LT_101-102_A1,True,315.0,321.0,2,-128.929001,4.54669,129.00914,130.011354,4.292526,130.082197,500.0,1.082353,8.839215,25.8,False
LT_101-102_A1,True,315.0,324.0,26,166.623184,27.849844,168.934601,-164.443309,-11.656488,164.855924,500.0,2.179875,16.193356,33.79,False
LT_101-102_A1,True,316.0,317.0,27,-161.834473,-0.790955,161.836411,162.688528,8.192771,162.894686,500.0,0.854056,7.401816,32.37,False
LT_101-102_A1,True,316.0,319.0,28,-46.832214,12.358184,48.435326,46.910689,-11.756544,48.361442,500.0,0.078475,0.60164,9.69,False
LT_101-102_A1,True,317.0,318.0,29,-119.716454,0.524192,119.717598,120.024471,1.631927,120.035564,500.0,0.308017,2.156119,23.94,False
LT_101-102_A1,True,317.0,322.0,30,-42.972065,-3.626714,43.124832,43.256466,5.759722,43.638243,500.0,0.284401,2.133008,8.62,False
LT_101-102_A1,True,318.0,321.0,1,-31.626024,-1.908383,31.68355,31.658117,2.186519,31.733535,500.0,0.032093,0.278136,6.34,False
LT_101-102_A1,True,318.0,321.0,2,-31.626024,-1.908383,31.68355,31.658117,2.186519,31.733535,500.0,0.032093,0.278136,6.34,False
LT_101-102_A1,True,319.0,320.0,1,-90.063354,-5.488276,90.230423,90.506121,9.030408,90.955518,500.0,0.442766,3.542131,18.05,False
LT_101-102_A1,True,319.0,320.0,2,-90.063354,-5.488276,90.230423,90.506121,9.030408,90.955518,500.0,0.442766,3.542131,18.05,False
LT_101-102_A1,True,320.0,323.0,1,-137.610107,-10.943933,138.044601,138.224718,15.451079,139.085616,500.0,0.614611,4.507147,27.61,False
LT_101-102_A1,True,320.0,323.0,2,-137.610107,-10.943933,138.044601,138.224718,15.451079,139.085616,500.0,0.614611,4.507147,27.61,False
LT_101-102_A1,True,321.0,322.0,34,-30.005896,1.985009,30.071482,30.09954,-1.277474,30.126637,500.0,0.093644,0.707535,6.01,False
LT_101-102_A1,True,323.0,325.0,35,-347.596893,92.290237,359.640228,347.596893,-79.922951,356.666901,722.0,0.0,12.367287,49.81,False
LT_101-103_A2,True,101.0,102.0,A1,55.125515,-38.94759,67.496201,-55.017417,39.452046,67.700666,175.0,0.108098,0.504457,38.57,False
LT_101-103_A2,True,101.0,105.0,A3,116.585472,-10.429853,117.051079,-113.344986,22.949913,115.645079,175.0,3.240486,12.52006,66.89,False
LT_101-103_A2,True,102.0,104.0,A4,95.607323,4.785009,95.72699,-92.350896,7.747303,92.675286,175.0,3.256427,12.532311,54.7,False
LT_101-103_A2,True,102.0,106.0,A5,83.921082,-9.035587,84.406105,-80.112819,23.659316,83.533389,175.0,3.808263,14.623729,48.23,False
LT_101-103_A2,True,103.0,109.0,A6,-63.980782,2.229835,64.019623,65.479579,3.523615,65.574318,175.0,1.498798,5.753449,36.58,False
LT_101-103_A2,True,103.0,124.0,A7,-89.834229,-33.84787,95.999298,90.051241,42.962381,99.774707,400.0,0.217012,9.114511,24.0,False
LT_101-103_A2,True,104.0,109.0,A8,29.115894,-17.507772,33.974365,-28.769683,18.841329,34.390265,175.0,0.346212,1.333556,19.41,False
LT_101-103_A2,True,105.0,110.0,A9,52.673985,-32.804451,62.053852,-51.712853,36.481825,63.286196,175.0,0.961132,3.677374,35.46,False
LT_101-103_A2,True,106.0,110.0,10,-36.103188,-133.01062,137.823303,36.381504,134.223283,139.066544,175.0,0.278316,1.212663,78.76,False
LT_101-103_A2,True,107.0,108.0,11,87.912758,24.011396,91.132866,-86.477282,-18.538646,88.442081,175.0,1.435476,5.472751,52.08,False
LT_101-103_A2,True,107.0,203.0,B1,160.27121,-0.917381,160.273834,-148.670235,45.387787,155.44417,175.0,11.600975,44.470406,91.59,False
LT_101-103_A2,True,108.0,109.0,1,-24.375074,1.175502,24.403404,24.67185,-0.036711,24.671877,175.0,0.296776,1.138791,13.94,False
LT_101-103_A2,True,108.0,110.0,2,-35.271648,-11.010499,36.950241,35.923062,13.51011,38.379545,175.0,0.651414,2.499611,21.11,False
LT_101-103_A2,True,109.0,111.0,14,-81.972076,-15.844724,83.48938,82.129108,22.44006,85.139572,400.0,0.157032,6.595336,20.87,False
LT_101-103_A2,True,109.0,112.0,15,-128.951675,-28.042095,131.9655,129.344,44.519745,136.791367,400.0,0.392325,16.47765,32.99,False
LT_101-103_A2,True,110.0,111.0,16,-69.526543,13.747637,70.872681,69.633441,-9.257916,70.246175,400.0,0.106898,4.489721,17.72,False
LT_101-103_A2,True,110.0,112.0,17,-117.698166,0.583361,117.699608,117.99299,11.799232,118.58148,400.0,0.294824,12.382593,29.42,False
LT_101-103_A2,True,111.0,113.0,18,-255.574753,3.843862,255.603653,259.824445,30.153674,261.56832,500.0,4.249692,33.997536,51.12,False
LT_101-103_A2,True,111.0,114.0,19,103.812202,-17.026007,105.199135,-103.219438,22.005225,105.539009,500.0,0.592764,4.979218,21.04,False
LT_101-103_A2,True,112.0,113.0,20,-175.713638,16.402405,176.477539,177.683885,-0.640435,177.685039,500.0,1.970246,15.76197,35.3,False
LT_101-103_A2,True,112.0,123.0,21,-71.623352,-72.72139,102.070091,72.768616,81.978939,109.616686,500.0,1.145264,9.257549,20.41,False
LT_101-103_A2,True,113.0,123.0,22,24.248228,-89.136909,92.376213,-23.442512,95.509395,98.344272,500.0,0.805717,6.372485,18.48,False
LT_101-103_A2,True,113.0,215.0,B2,286.402527,-48.94809,290.555176,-277.701264,114.207565,300.268813,500.0,8.701262,65.259476,58.11,False
LT_101-103_A2,True,114.0,116.0,23,-62.558548,-47.19622,78.364883,62.87162,50.890471,80.886839,500.0,0.313072,3.694251,15.67,False
LT_101-103_A2,True,115.0,116.0,24,-127.863487,-23.745235,130.049637,128.209695,26.688002,130.957915,500.0,0.346208,2.942767,26.01,False
LT_101-103_A2,True,115.0,121.0,1,-39.400719,3.913324,39.594582,39.501417,-3.090954,39.622165,500.0,0.100698,0.822369,7.92,False
LT_101-103_A2,True,115.0,121.0,2,-39.400719,3.913324,39.594582,39.501417,-3.090954,39.622165,500.0,0.100698,0.822369,7.92,False
LT_101-103_A2,True,115.0,124.0,26,90.779915,38.075558,98.441559,-90.051245,-32.66258,95.79181,500.0,0.72867,5.412977,19.69,False
LT_101-103_A2,True,116.0,117.0,27,-3.812231,18.022499,18.421282,3.825758,-17.905263,18.30942,500.0,0.013527,0.117236,3.68,False
LT_101-103_A2,True,116.0,119.0,28,-117.722107,-56.30632,130.494812,118.232384,60.218444,132.684429,500.0,0.510277,3.912124,26.1,False
LT_101-103_A2,True,117.0,118.0,29,7.537606,39.374603,40.089588,-7.502232,-39.126983,39.839732,500.0,0.035374,0.24762,8.02,False
LT_101-103_A2,True,117.0,122.0,30,-11.363366,-16.077951,19.688236,11.385947,16.247312,19.839731,500.0,0.022581,0.16936,3.94,False
LT_101-103_A2,True,118.0,121.0,1,8.741111,-14.236797,16.706089,-8.734549,14.293662,16.751153,500.0,0.006561,0.056865,3.34,False
LT_101-103_A2,True,118.0,121.0,2,8.741111,-14.236797,16.706089,-8.734549,14.293662,16.751153,500.0,0.006561,0.056865,3.34,False
LT_101-103_A2,True,119.0,120.0,1,-136.450714,-43.463726,143.20578,137.440539,51.382325,146.7312,500.0,0.989825,7.918599,28.64,False
LT_101-103_A2,True,119.0,120.0,2,-136.450714,-43.463726,143.20578,137.440539,51.382325,146.7312,500.0,0.989825,7.918599,28.64,False
LT_101-103_A2,True,120.0,123.0,1,-192.130524,-53.839188,199.531448,193.243138,61.998357,202.945082,500.0,1.112614,8.159169,39.91,False
LT_101-103_A2,True,120.0,123.0,2,-192.130524,-53.839188,199.531448,193.243138,61.998357,202.945082,500.0,1.112614,8.159169,39.91,False
LT_101-103_A2,True,121.0,122.0,34,-22.254585,-18.914867,29.206827,22.314053,19.364178,29.544684,500.0,0.059468,0.449311,5.84,False
LT_101-103_A2,True,121.0,325.0,1,360.720856,34.720757,362.388,-344.357897,97.546486,357.90736,500.0,16.362959,132.267242,72.48,False
LT_101-103_A2,True,123.0,217.0,B3,234.187607,-1.869617,234.195068,-229.209068,38.710807,232.454993,500.0,4.978539,36.84119,46.84,False
LT_101-103_A2,True,201.0,202.0,B1,17.383436,-30.599005,35.192085,-17.37042,30.659745,35.238494,175.0,0.013016,0.06074,20.11,False
LT_101-103_A2,True,201.0,203.0,B2,-56.820332,27.211815,63.000263,59.308618,-17.665842,61.883715,175.0,2.488287,9.545973,36.0,False
LT_101-103_A2,True,201.0,205.0,B3,64.43692,-16.419806,66.496063,-63.375954,20.518991,66.614868,175.0,1.060966,4.099186,38.0,False
LT_101-103_A2,True,202.0,204.0,B4,33.708557,6.560797,34.341095,-33.273435,-4.886237,33.630296,175.0,0.435122,1.67456,19.62,False
LT_101-103_A2,True,202.0,206.0,B5,50.250877,-14.368001,52.264614,-48.786984,19.989351,52.723277,175.0,1.463893,5.62135,29.87,False
LT_101-103_A2,True,203.0,209.0,B6,114.070221,-33.397572,118.858803,-109.05842,52.636421,121.096374,175.0,5.011801,19.23885,67.92,False
LT_101-103_A2,True,203.0,224.0,B7,-183.203598,-17.880329,184.074081,183.984123,50.66238,190.831953,400.0,0.780525,32.782051,46.02,False
LT_101-103_A2,True,204.0,209.0,B8,-31.88554,-5.291186,32.321579,32.205817,6.524845,32.860132,175.0,0.320277,1.233659,18.47,False
LT_101-103_A2,True,205.0,210.0,B9,0.857968,-30.751293,30.76326,-0.635836,31.601192,31.607588,175.0,0.222133,0.849899,17.58,False
LT_101-103_A2,True,206.0,210.0,10,-70.964966,-131.783508,149.676056,71.78597,135.360739,153.217999,175.0,0.821004,3.577231,85.53,False
LT_101-103_A2,True,207.0,208.0,11,-0.06653,15.988334,15.988472,0.119146,-15.787735,15.788185,175.0,0.052616,0.200598,9.14,False
LT_101-103_A2,True,208.0,209.0,1,-86.140511,7.583716,86.473694,90.036208,7.364888,90.336927,175.0,3.895697,14.948605,49.41,False
LT_101-103_A2,True,208.0,210.0,2,-64.547485,-21.188732,67.936295,66.902597,30.225789,73.413594,175.0,2.355112,9.037057,38.82,False
LT_101-103_A2,True,209.0,211.0,14,-86.395531,-34.943104,93.194466,86.588939,43.066252,96.70753,400.0,0.193408,8.123148,23.3,False
LT_101-103_A2,True,209.0,212.0,15,-80.881157,-54.093315,97.302864,81.091994,62.948456,102.656805,400.0,0.210837,8.855141,24.33,False
LT_101-103_A2,True,210.0,211.0,16,-157.132568,12.774292,157.650955,157.648163,8.880678,157.898099,400.0,0.515595,21.65497,39.41,False
LT_101-103_A2,True,210.0,212.0,17,-152.62323,-7.374471,152.80127,153.107591,27.717626,155.596276,400.0,0.484361,20.343155,38.2,False
LT_101-103_A2,True,211.0,213.0,18,-59.586166,-95.334503,112.424103,60.314558,101.161637,117.777429,500.0,0.728392,5.827134,22.48,False
LT_101-103_A2,True,211.0,214.0,19,-184.650986,43.387585,189.679901,186.531116,-27.594491,188.561165,500.0,1.88013,15.793094,37.94,False
LT_101-103_A2,True,212.0,213.0,20,-70.235603,-61.227554,93.176468,70.721446,65.114298,96.132173,500.0,0.485843,3.886743,18.64,False
LT_101-103_A2,True,212.0,223.0,21,-163.96405,-29.438412,166.5858,167.235875,55.88566,176.326529,500.0,3.271825,26.447248,33.32,False
LT_101-103_A2,True,213.0,223.0,22,-148.81601,-3.791229,148.864288,151.109193,21.928229,152.691963,500.0,2.293184,18.136999,29.77,False
LT_101-103_A2,True,214.0,216.0,23,-357.354095,1.698885,357.358124,364.060797,77.440199,372.205922,500.0,6.706702,79.139084,71.47,False
LT_101-103_A2,True,215.0,216.0,24,333.082886,-65.210655,339.406311,-330.821858,84.42939,341.425575,500.0,2.261028,19.218735,67.88,False
LT_101-103_A2,True,215.0,221.0,1,-133.594482,-55.885307,144.812469,134.798899,65.721376,149.966805,500.0,1.204417,9.836069,28.96,False
LT_101-103_A2,True,215.0,221.0,2,-133.594482,-55.885307,144.812469,134.798899,65.721376,149.966805,500.0,1.204417,9.836069,28.96,False
LT_101-103_A2,True,215.0,224.0,26,186.67926,60.055576,196.101547,-183.984138,-40.034668,188.289505,500.0,2.695122,20.020908,39.22,False
LT_101-103_A2,True,216.0,217.0,27,-371.804108,-28.88732,372.924622,375.856412,64.007296,381.267591,500.0,4.052304,35.119976,74.58,False
LT_101-103_A2,True,216.0,219.0,28,405.512085,-58.790421,409.751617,-400.622902,96.274151,412.028424,500.0,4.889183,37.48373,81.95,False
LT_101-103_A2,True,217.0,218.0,29,-130.90834,-58.72625,143.477402,131.288376,61.386495,144.930809,500.0,0.380035,2.660246,28.7,False
LT_101-103_A2,True,217.0,222.0,30,-15.73903,-21.347178,26.522049,15.783066,21.677445,26.814488,500.0,0.044036,0.330267,5.3,False
LT_101-103_A2,True,218.0,221.0,1,-34.752193,15.995273,38.25655,34.795173,-15.622782,38.141518,500.0,0.04298,0.372491,7.65,False
LT_101-103_A2,True,218.0,221.0,2,-34.752193,15.995273,38.25655,34.795173,-15.622782,38.141518,500.0,0.04298,0.372491,7.65,False
LT_101-103_A2,True,219.0,220.0,1,120.623505,-61.894726,135.576492,-119.763535,68.774481,138.105878,500.0,0.859969,6.879755,27.12,False
LT_101-103_A2,True,219.0,220.0,2,120.623505,-61.894726,135.576492,-119.763535,68.774481,138.105878,500.0,0.859969,6.879755,27.12,False
LT_101-103_A2,True,220.0,223.0,1,63.409538,-71.44725,95.527367,-63.164694,73.242776,96.717541,500.0,0.244844,1.795525,19.11,False
LT_101-103_A2,True,220.0,223.0,2,63.409538,-71.44725,95.527367,-63.164694,73.242776,96.717541,500.0,0.244844,1.795525,19.11,False
LT_101-103_A2,True,221.0,222.0,34,15.811868,-17.621222,23.67536,-15.783064,17.838851,23.818684,500.0,0.028804,0.217629,4.74,False
LT_101-103_A2,True,223.0,318.0,1,137.984344,62.879532,151.636124,-135.077862,-39.627668,140.770667,500.0,2.906483,23.251863,30.33,False
LT_101-103_A2,True,301.0,302.0,C1,10.745019,-31.733339,33.503139,-10.737713,31.767433,33.533092,175.0,0.007306,0.034093,19.14,False
...
LT_103-124_A7,False,,,,,,,,,,,,,,
LT_104-109_A8,True,101.0,102.0,A1,11.036469,-29.748653,31.729893,-11.030287,29.777503,31.754793,175.0,0.006182,0.028849,18.13,False
LT_104-109_A8,True,101.0,103.0,A2,66.911507,-1.045107,66.91967,-64.25861,11.222583,65.231245,175.0,2.652897,10.177477,38.24,False
LT_104-109_A8,True,101.0,105.0,A3,93.763016,-10.878459,94.391975,-91.657679,19.012715,93.608832,175.0,2.105337,8.134256,53.94,False
LT_104-109_A8,True,102.0,104.0,A4,64.834892,15.94597,66.767036,-63.235005,-9.788829,63.988179,175.0,1.599887,6.157141,38.15,False
LT_104-109_A8,True,102.0,106.0,A5,70.706383,-10.010703,71.41153,-67.988764,20.446361,70.996659,175.0,2.717619,10.435658,40.81,False
LT_104-109_A8,True,103.0,109.0,A6,-26.902325,-6.54903,27.68799,27.169274,7.573773,28.205168,175.0,0.26695,1.024743,15.82,False
LT_104-109_A8,True,103.0,124.0,A7,-62.654072,-31.161362,69.975449,62.766467,35.881979,72.299003,400.0,0.112396,4.720617,17.49,False
LT_104-109_A8,True,105.0,110.0,A9,30.986675,-28.859404,42.344292,-30.549882,30.530613,43.190434,175.0,0.436793,1.67121,24.2,False
LT_104-109_A8,True,106.0,110.0,10,-48.227242,-130.613159,139.232407,48.638734,132.406093,141.05708,175.0,0.411493,1.792933,79.56,False
LT_104-109_A8,True,107.0,108.0,11,89.613144,19.756456,91.765099,-88.158932,-14.212273,89.297178,175.0,1.454212,5.544183,52.44,False
LT_104-109_A8,True,107.0,203.0,B1,158.570831,-1.205208,158.575409,-147.214954,44.736073,153.862143,175.0,11.355877,43.530865,90.61,False
LT_104-109_A8,True,108.0,109.0,1,-27.757359,-0.541572,27.762642,28.134901,1.990279,28.20521,175.0,0.377542,1.448708,15.86,False
LT_104-109_A8,True,108.0,110.0,2,-30.207708,-13.615808,33.13451,30.719822,15.580894,34.445199,175.0,0.512114,1.965087,18.93,False
LT_104-109_A8,True,109.0,111.0,14,-79.469849,-10.593762,80.172844,79.612439,16.582562,81.321103,400.0,0.14259,5.9888,20.04,False
LT_104-109_A8,True,109.0,112.0,15,-125.376335,-22.888433,127.448441,125.736669,38.022453,131.359875,400.0,0.360334,15.13402,31.86,False
LT_104-109_A8,True,110.0,111.0,16,-84.168381,17.273119,85.922501,84.324179,-10.729581,85.004065,400.0,0.155799,6.543538,21.48,False
LT_104-109_A8,True,110.0,112.0,17,-131.2733,4.809721,131.361374,131.637454,10.484741,132.054342,400.0,0.364154,15.294462,32.84,False
LT_104-109_A8,True,111.0,113.0,18,-256.605896,8.56539,256.74881,260.876475,25.599245,262.129466,500.0,4.270579,34.164635,51.35,False
LT_104-109_A8,True,111.0,114.0,19,92.669296,-14.418372,93.784264,-92.200627,18.355193,94.00994,500.0,0.468669,3.936821,18.76,False
LT_104-109_A8,True,112.0,113.0,20,-179.171997,21.16272,180.41748,181.225323,-4.736111,181.287199,500.0,2.053326,16.426609,36.08,False
LT_104-109_A8,True,112.0,123.0,21,-78.202103,-69.669922,104.735222,79.418637,79.503576,112.374991,500.0,1.216535,9.833654,20.95,False
LT_104-109_A8,True,113.0,123.0,22,18.863285,-88.602028,90.587761,-18.093901,94.687158,96.400452,500.0,0.769384,6.08513,18.12,False
LT_104-109_A8,True,113.0,215.0,B2,282.682404,-49.493893,286.982544,-274.19641,113.138844,296.621087,500.0,8.485993,63.644951,57.4,False
LT_104-109_A8,True,114.0,116.0,23,-73.57737,-43.514683,85.481911,73.953733,47.955773,88.141425,500.0,0.376364,4.44109,17.1,False
LT_104-109_A8,True,115.0,116.0,24,-107.186958,-26.596638,110.437431,107.435955,28.71311,111.206687,500.0,0.248997,2.116473,22.09,False
LT_104-109_A8,True,115.0,121.0,1,-35.916237,3.41734,36.078445,36.000211,-2.73155,36.103692,500.0,0.083974,0.68579,7.22,False
LT_104-109_A8,True,115.0,121.0,2,-35.916237,3.41734,36.078445,36.000211,-2.73155,36.103692,500.0,0.083974,0.68579,7.22,False
LT_104-109_A8,True,115.0,124.0,26,63.134407,28.246445,69.165131,-62.766466,-25.513169,67.753605,500.0,0.367941,2.733276,13.83,False
LT_104-109_A8,True,116.0,117.0,27,-7.43037,18.47743,19.915466,7.445716,-18.344431,19.7979,500.0,0.015346,0.132999,3.98,False
LT_104-109_A8,True,116.0,119.0,28,-104.412331,-59.163891,120.00959,104.842231,62.459797,122.03737,500.0,0.429901,3.295906,24.0,False
LT_104-109_A8,True,117.0,118.0,29,4.411035,39.74696,39.990974,-4.3758,-39.500313,39.741947,500.0,0.035235,0.246646,8.0,False
LT_104-109_A8,True,117.0,122.0,30,-11.856752,-16.011183,19.923367,11.880878,16.192128,20.083333,500.0,0.024126,0.180945,3.98,False
LT_104-109_A8,True,118.0,121.0,1,7.177895,-14.050139,15.777472,-7.172242,14.099129,15.818549,500.0,0.005653,0.04899,3.16,False
LT_104-109_A8,True,118.0,121.0,2,7.177895,-14.050139,15.777472,-7.172242,14.099129,15.818549,500.0,0.005653,0.04899,3.16,False
LT_104-109_A8,True,119.0,120.0,1,-129.755646,-44.583946,137.201508,130.661998,51.834765,140.568135,500.0,0.906352,7.250819,27.44,False
LT_104-109_A8,True,119.0,120.0,2,-129.755646,-44.583946,137.201508,130.661998,51.834765,140.568135,500.0,0.906352,7.250819,27.44,False
LT_104-109_A8,True,120.0,123.0,1,-185.351974,-54.288738,193.13887,186.393598,61.927313,196.411725,500.0,1.041624,7.638575,38.63,False
LT_104-109_A8,True,120.0,123.0,2,-185.351974,-54.288738,193.13887,186.393598,61.927313,196.411725,500.0,1.041624,7.638575,38.63,False
LT_104-109_A8,True,121.0,122.0,34,-21.761517,-18.983862,28.878202,21.819123,19.419108,29.209175,500.0,0.057606,0.435246,5.78,False
LT_104-109_A8,True,121.0,325.0,1,364.105591,35.748375,365.856293,-347.427279,99.067986,361.275767,500.0,16.678312,134.81636,73.17,False
LT_104-109_A8,True,123.0,217.0,B3,235.888046,-1.86513,235.895416,-230.837,39.242877,234.148935,500.0,5.051046,37.377747,47.18,False
LT_104-109_A8,True,201.0,202.0,B1,17.228649,-30.566317,35.087406,-17.215831,30.626136,35.133247,175.0,0.012818,0.059819,20.05,False
LT_104-109_A8,True,201.0,203.0,B2,-56.508755,26.887852,62.579517,58.964091,-17.46829,61.497196,175.0,2.455336,9.419561,35.76,False
LT_104-109_A8,True,201.0,205.0,B3,64.280121,-16.441608,66.349533,-63.223872,20.522569,66.471301,175.0,1.056249,4.080961,37.91,False
LT_104-109_A8,True,202.0,204.0,B4,33.653755,6.484844,34.272854,-33.220413,-4.817134,33.567851,175.0,0.433342,1.667709,19.58,False
LT_104-109_A8,True,202.0,206.0,B5,50.151093,-14.388474,52.174324,-48.692425,19.989759,52.635945,175.0,1.458668,5.601285,29.81,False
LT_104-109_A8,True,203.0,209.0,B6,113.37442,-33.206432,118.137321,-108.427721,52.195375,120.336727,175.0,4.946699,18.988943,67.51,False
LT_104-109_A8,True,203.0,224.0,B7,-183.618561,-17.613571,184.461411,184.401707,50.505722,191.193142,400.0,0.783147,32.892151,46.12,False
LT_104-109_A8,True,204.0,209.0,B8,-31.938564,-5.359916,32.385193,32.259983,6.597974,32.927796,175.0,0.321419,1.238058,18.51,False
LT_104-109_A8,True,205.0,210.0,B9,0.70589,-30.754768,30.762869,-0.483789,31.604547,31.608249,175.0,0.222101,0.849778,17.58,False
LT_104-109_A8,True,206.0,210.0,10,-71.059532,-131.797287,149.733047,71.882442,135.38282,153.282724,175.0,0.822909,3.585533,85.56,False
LT_104-109_A8,True,207.0,208.0,11,-0.066521,15.988317,15.988456,0.11912,-15.787784,15.788233,175.0,0.052599,0.200534,9.14,False
LT_104-109_A8,True,208.0,209.0,1,-86.115799,7.538635,86.445145,90.007457,7.394471,90.310689,175.0,3.891658,14.933106,49.4,False
LT_104-109_A8,True,208.0,210.0,2,-64.572182,-21.143103,67.945549,66.927175,30.179705,73.417037,175.0,2.354993,9.036602,38.83,False
LT_104-109_A8,True,209.0,211.0,14,-86.618782,-34.819332,93.355232,86.812773,42.96694,96.863902,400.0,0.193991,8.147608,23.34,False
LT_104-109_A8,True,209.0,212.0,15,-81.314026,-53.874512,97.541962,81.525807,62.769304,102.89044,400.0,0.211781,8.894793,24.39,False
LT_104-109_A8,True,210.0,211.0,16,-157.165176,12.746483,157.681198,157.68088,8.913084,157.93259,400.0,0.515704,21.659567,39.42,False
LT_104-109_A8,True,210.0,212.0,17,-152.863708,-7.287474,153.037308,153.349484,27.69003,155.8294,400.0,0.485775,20.402555,38.26,False
LT_104-109_A8,True,211.0,213.0,18,-60.075874,-95.132057,112.513199,60.805455,100.968701,117.864252,500.0,0.729581,5.836644,22.5,False
LT_104-109_A8,True,211.0,214.0,19,-184.417831,43.252052,189.421951,186.29243,-27.505423,188.312022,500.0,1.874599,15.74663,37.88,False
LT_104-109_A8,True,212.0,213.0,20,-70.342773,-61.218082,93.251053,70.829416,65.111221,96.209548,500.0,0.486642,3.893138,18.65,False
LT_104-109_A8,True,212.0,223.0,21,-164.532578,-29.241133,167.110779,167.825649,55.860128,176.877931,500.0,3.293072,26.618996,33.42,False
LT_104-109_A8,True,213.0,223.0,22,-149.414871,-3.592893,149.458069,151.726581,21.876419,153.295575,500.0,2.31171,18.283525,29.89,False
LT_104-109_A8,True,214.0,216.0,23,-357.115417,1.612036,357.119049,363.811096,77.396982,371.952694,500.0,6.695679,79.009018,71.42,False
LT_104-109_A8,True,215.0,216.0,24,330.378113,-64.924042,336.69693,-328.153816,83.830563,338.692324,500.0,2.224297,18.906521,67.34,False
LT_104-109_A8,True,215.0,221.0,1,-134.207947,-55.447151,145.210724,135.419046,65.337794,150.357392,500.0,1.211099,9.890643,29.04,False
LT_104-109_A8,True,215.0,221.0,2,-134.207947,-55.447151,145.210724,135.419046,65.337794,150.357392,500.0,1.211099,9.890643,29.04,False
LT_104-109_A8,True,215.0,224.0,26,187.10614,59.963978,196.47998,-184.401723,-39.874022,188.663544,500.0,2.704417,20.089956,39.3,False
LT_104-109_A8,True,216.0,217.0,27,-372.19339,-28.373184,373.273315,376.252235,63.549843,381.581351,500.0,4.058846,35.176659,74.65,False
LT_104-109_A8,True,216.0,219.0,28,403.483063,-58.659054,407.724701,-398.643547,95.762012,409.984195,500.0,4.839516,37.102959,81.54,False
LT_104-109_A8,True,217.0,218.0,29,-129.842789,-58.788998,142.531723,130.217761,61.413803,143.973332,500.0,0.374972,2.624805,28.51,False
LT_104-109_A8,True,217.0,222.0,30,-15.572497,-21.357662,26.432034,15.615875,21.682995,26.720925,500.0,0.043378,0.325333,5.29,False
LT_104-109_A8,True,218.0,221.0,1,-34.216888,15.981686,37.76519,34.258842,-15.618091,37.650936,500.0,0.041953,0.363595,7.55,False
LT_104-109_A8,True,218.0,221.0,2,-34.216888,15.981686,37.76519,34.258842,-15.618091,37.650936,500.0,0.041953,0.363595,7.55,False
LT_104-109_A8,True,219.0,220.0,1,119.63382,-61.637981,134.578949,-118.786933,68.413076,137.079117,500.0,0.846887,6.775095,26.92,False
LT_104-109_A8,True,219.0,220.0,2,119.63382,-61.637981,134.578949,-118.786933,68.413076,137.079117,500.0,0.846887,6.775095,26.92,False
LT_104-109_A8,True,220.0,223.0,1,62.432934,-71.084312,94.60894,-62.192936,72.8443,95.782322,500.0,0.239998,1.759987,18.92,False
LT_104-109_A8,True,220.0,223.0,2,62.432934,-71.084312,94.60894,-62.192936,72.8443,95.782322,500.0,0.239998,1.759987,18.92,False
LT_104-109_A8,True,221.0,222.0,34,15.644238,-17.620098,23.562897,-15.615873,17.834416,23.704891,500.0,0.028366,0.214318,4.71,False
LT_104-109_A8,True,223.0,318.0,1,134.833649,62.860233,148.766663,-132.028862,-40.421936,138.078069,500.0,2.804787,22.438297,29.75,False
LT_104-109_A8,True,301.0,302.0,C1,10.697362,-31.723225,33.478298,-10.690096,31.757131,33.508111,175.0,0.007266,0.033906,19.13,False
LT_104-109_A8,True,301.0,303.0,C2,-13.987064,17.458588,22.370522,14.344099,-16.088873,21.554698,175.0,0.357035,1.369715,12.78,False
LT_104-109_A8,True,301.0,305.0,C3,33.80175,0.527157,33.805859,-33.52884,0.527271,33.532985,175.0,0.272911,1.054428,19.32,False
LT_104-109_A8,True,302.0,304.0,C4,20.700615,16.391935,26.404753,-20.432705,-15.360886,25.562712,175.0,0.26791,1.031049,15.09,False
LT_104-109_A8,True,302.0,306.0,C5,28.597525,-3.843304,28.854626,-28.15452,5.544443,28.695258,175.0,0.443005,1.701139,16.49,False
LT_104-109_A8,True,303.0,309.0,C6,17.00922,-10.923108,20.214546,-16.871525,11.451679,20.390912,175.0,0.137695,0.528571,11.55,False
LT_104-109_A8,True,303.0,324.0,C7,-163.833267,4.852616,163.905121,164.460384,21.486306,165.85801,400.0,0.627117,26.338923,40.98,False
LT_104-109_A8,True,304.0,309.0,C8,-34.031208,7.368704,34.819836,34.414603,-5.891922,34.915321,175.0,0.383395,1.476782,19.9,False
LT_104-109_A8,True,305.0,310.0,C9,-18.727108,-8.727375,20.660873,18.830903,9.124502,20.925091,175.0,0.103795,0.397127,11.81,False
LT_104-109_A8,True,306.0,310.0,10,-71.94136,-111.969124,133.088867,72.741369,115.454877,136.459281,175.0,0.800009,3.485753,76.05,False
LT_104-109_A8,True,307.0,308.0,11,-47.998688,19.607683,51.849155,48.54289,-17.532911,51.612161,175.0,0.544203,2.074773,29.63,False
LT_104-109_A8,True,308.0,309.0,1,-91.425034,7.423797,91.725952,96.018877,10.203742,96.559521,175.0,4.593843,17.627539,52.41,False
LT_104-109_A8,True,308.0,310.0,2,-82.971252,-14.30026,84.194572,86.802186,29.000352,91.518522,175.0,3.830933,14.700092,48.11,False
LT_104-109_A8,True,309.0,311.0,14,-103.362259,-18.236202,104.958641,103.615614,28.877114,107.564321,400.0,0.253355,10.640912,26.24,False
LT_104-109_A8,True,309.0,312.0,15,-139.000458,-15.09405,139.817581,139.450048,33.97684,143.529584,400.0,0.44959,18.88279,34.95,False
LT_104-109_A8,True,310.0,311.0,16,-142.596573,22.068214,144.294098,143.044864,-3.239977,143.081552,400.0,0.448291,18.828238,36.07,False
LT_104-109_A8,True,310.0,312.0,17,-179.298553,26.555956,181.254501,180.005914,3.153183,180.033529,400.0,0.707361,29.709139,45.31,False
LT_104-109_A8,True,311.0,313.0,18,-172.463409,-56.725239,181.552704,174.596053,73.786386,189.547389,500.0,2.132643,17.061148,36.31,False
LT_104-109_A8,True,311.0,314.0,19,-74.197327,31.088251,80.447021,74.566175,-27.989927,79.646409,500.0,0.368848,3.098325,16.09,False
LT_104-109_A8,True,312.0,313.0,20,-107.210472,-66.289207,126.048973,108.212314,74.303944,131.266831,500.0,1.001842,8.014736,25.21,False
LT_104-109_A8,True,312.0,323.0,21,-212.245819,29.159224,214.239471,218.338315,20.088457,219.260498,500.0,6.092496,49.247681,42.85,False
LT_104-109_A8,True,313.0,323.0,22,-188.268417,62.235893,198.288422,192.760038,-26.711258,194.601962,500.0,4.491621,35.524635,39.66,False
LT_104-109_A8,True,314.0,316.0,23,-217.350189,7.232147,217.470474,220.003102,24.072227,221.316147,500.0,2.652913,31.304375,43.49,False
LT_104-109_A8,True,315.0,316.0,24,22.978134,13.939601,26.875772,-22.961475,-13.797996,26.788318,500.0,0.016659,0.141605,5.38,False
LT_104-109_A8,True,315.0,321.0,1,-128.965469,4.551394,129.045761,130.04844,4.292866,130.119274,500.0,1.082971,8.84426,25.81,False
LT_104-109_A8,True,315.0,321.0,2,-128.965469,4.551394,129.045761,130.04844,4.292866,130.119274,500.0,1.082971,8.84426,25.81,False
LT_104-109_A8,True,315.0,324.0,26,166.640793,27.853468,168.952576,-164.460451,-11.656643,164.873034,500.0,2.180342,16.196825,33.79,False
LT_104-109_A8,True,316.0,317.0,27,-161.927399,-0.773121,161.929245,162.782437,8.183455,162.988008,500.0,0.855039,7.410334,32.39,False
LT_104-109_A8,True,316.0,319.0,28,-46.714283,12.336061,48.315655,46.792377,-11.737341,48.242012,500.0,0.078094,0.59872,9.66,False
LT_104-109_A8,True,317.0,318.0,29,-119.808556,0.533853,119.809746,120.117048,1.625593,120.128047,500.0,0.308492,2.159446,23.96,False
LT_104-109_A8,True,317.0,322.0,30,-42.973862,-3.627065,43.126656,43.258286,5.760245,43.640116,500.0,0.284424,2.13318,8.63,False
LT_104-109_A8,True,318.0,321.0,1,-31.588099,-1.913097,31.645977,31.620114,2.190565,31.695902,500.0,0.032016,0.277468,6.33,False
LT_104-109_A8,True,318.0,321.0,2,-31.588099,-1.913097,31.645977,31.620114,2.190565,31.695902,500.0,0.032016,0.277468,6.33,False
LT_104-109_A8,True,319.0,320.0,1,-90.004204,-5.497875,90.171967,90.44639,9.035361,90.896574,500.0,0.442186,3.537486,18.03,False
LT_104-109_A8,True,319.0,320.0,2,-90.004204,-5.497875,90.171967,90.44639,9.035361,90.896574,500.0,0.442186,3.537486,18.03,False
LT_104-109_A8,True,320.0,323.0,1,-137.550385,-10.948868,137.985443,138.164465,15.452128,139.025853,500.0,0.614081,4.503261,27.6,False
LT_104-109_A8,True,320.0,323.0,2,-137.550385,-10.948868,137.985443,138.164465,15.452128,139.025853,500.0,0.614081,4.503261,27.6,False
LT_104-109_A8,True,321.0,322.0,34,-30.004087,1.984727,30.069658,30.097721,-1.277274,30.124811,500.0,0.093633,0.707453,6.01,False
LT_104-109_A8,True,323.0,325.0,35,-347.427307,92.192612,359.451233,347.427307,-79.83832,356.482666,722.0,0.0,12.354292,49.79,False
LT_105-110_A9,True,101.0,102.0,A1,36.663639,-35.134453,50.780434,-36.614131,35.365489,50.904935,175.0,0.049508,0.231036,29.02,False
LT_105-110_A9,True,101.0,103.0,A2,73.426231,-0.779307,73.430367,-70.231361,13.035993,71.430954,175.0,3.194871,12.256685,41.96,False
LT_105-110_A9,True,101.0,105.0,A3,61.621124,13.553758,63.094116,-60.671005,-9.882841,61.470654,175.0,0.95012,3.670917,36.05,False
LT_105-110_A9,True,102.0,104.0,A4,80.894501,3.745227,80.981155,-78.563435,5.225845,78.737048,175.0,2.331066,8.971071,46.27,False
LT_105-110_A9,True,102.0,106.0,A5,80.230621,-13.70651,81.393005,-76.702969,27.252695,81.400582,175.0,3.527653,13.546185,46.51,False
LT_105-110_A9,True,103.0,109.0,A6,-25.069649,-6.490609,25.89624,25.303485,7.38824,26.360054,175.0,0.233837,0.897631,14.8,False
LT_105-110_A9,True,103.0,124.0,A7,-58.514,-33.043461,67.199394,58.618085,37.415032,69.5411,400.0,0.104085,4.371572,16.8,False
LT_105-110_A9,True,104.0,109.0,A8,15.328428,-14.973524,21.428186,-15.197705,15.47705,21.691227,175.0,0.130723,0.503526,12.24,False
LT_105-110_A9,True,106.0,110.0,10,-39.513039,-138.49527,144.021591,39.846954,139.950184,145.512315,175.0,0.333915,1.454915,82.3,False
LT_105-110_A9,True,107.0,108.0,11,89.785316,17.790117,91.530823,-88.339027,-12.276139,89.187932,175.0,1.446289,5.513978,52.3,False
LT_105-110_A9,True,107.0,203.0,B1,158.398651,-1.237332,158.403473,-147.067444,44.673627,153.70285,175.0,11.331207,43.436295,90.52,False
LT_105-110_A9,True,108.0,109.0,1,-30.361294,2.526404,30.466227,30.820517,-0.764267,30.829992,175.0,0.459223,1.762136,17.41,False
LT_105-110_A9,True,108.0,110.0,2,-27.423679,-18.617945,33.146435,27.92509,20.541964,34.666741,175.0,0.501411,1.924019,18.94,False
LT_105-110_A9,True,109.0,111.0,14,-72.495613,-15.519489,74.138168,72.618229,20.669365,75.502516,400.0,0.122616,5.149876,18.53,False
LT_105-110_A9,True,109.0,112.0,15,-117.972694,-28.038496,121.258865,118.300707,41.815032,125.473321,400.0,0.328013,13.776536,30.31,False
LT_105-110_A9,True,110.0,111.0,16,-93.514793,26.72747,97.259315,93.711032,-18.485445,95.516853,400.0,0.196239,8.242025,24.31,False
LT_105-110_A9,True,110.0,112.0,17,-140.890244,14.559598,141.640533,141.306439,2.920613,141.336618,400.0,0.416196,17.480211,35.41,False
LT_105-110_A9,True,111.0,113.0,18,-257.272949,11.063833,257.510712,261.559925,23.231974,262.58964,500.0,4.286976,34.295807,51.5,False
LT_105-110_A9,True,111.0,114.0,19,90.94368,-13.247755,91.903511,-90.494428,17.021471,92.081333,500.0,0.449252,3.773716,18.38,False
LT_105-110_A9,True,112.0,113.0,20,-180.228775,23.676668,181.777328,182.309747,-7.028891,182.445195,500.0,2.080972,16.647778,36.36,False
LT_105-110_A9,True,112.0,123.0,21,-79.378365,-68.412315,104.791084,80.596318,78.25744,112.338744,500.0,1.217953,9.845124,20.96,False
LT_105-110_A9,True,113.0,123.0,22,18.160923,-88.530418,90.373962,-17.395818,94.581706,96.168153,500.0,0.765105,6.051288,18.07,False
LT_105-110_A9,True,113.0,215.0,B2,282.151062,-49.57272,286.472809,-273.695569,112.988922,296.10093,500.0,8.455493,63.416203,57.29,False
LT_105-110_A9,True,114.0,116.0,23,-75.283569,-42.164936,86.287292,75.667342,46.693459,88.914711,500.0,0.383773,4.528523,17.26,False
LT_105-110_A9,True,115.0,116.0,24,-104.048119,-27.022781,107.499969,104.283918,29.027075,108.248356,500.0,0.235799,2.004293,21.5,False
LT_105-110_A9,True,115.0,121.0,1,-35.396336,3.343882,35.553932,35.477946,-2.677396,35.57883,500.0,0.081611,0.666487,7.11,False
LT_105-110_A9,True,115.0,121.0,2,-35.396336,3.343882,35.553932,35.477946,-2.677396,35.57883,500.0,0.081611,0.666487,7.11,False
LT_105-110_A9,True,115.0,124.0,26,58.955772,29.559622,65.951149,-58.61809,-27.051125,64.55884,500.0,0.337682,2.508497,13.19,False
LT_105-110_A9,True,116.0,117.0,27,-7.988383,18.548201,20.195297,8.004082,-18.412139,20.076658,500.0,0.015699,0.136062,4.04,False
LT_105-110_A9,True,116.0,119.0,28,-102.415894,-59.583813,118.48732,102.834681,62.794516,120.491173,500.0,0.418787,3.210703,23.7,False
LT_105-110_A9,True,117.0,118.0,29,3.928771,39.804367,39.997787,-3.893522,-39.557618,39.748769,500.0,0.03525,0.246749,8.0,False
LT_105-110_A9,True,117.0,122.0,30,-11.932855,-16.000887,19.960495,11.957225,16.183666,20.121786,500.0,0.024371,0.182779,3.99,False
LT_105-110_A9,True,118.0,121.0,1,6.936755,-14.02149,15.643554,-6.931229,14.069385,15.684053,500.0,0.005526,0.047895,3.13,False
LT_105-110_A9,True,118.0,121.0,2,6.936755,-14.02149,15.643554,-6.931229,14.069385,15.684053,500.0,0.005526,0.047895,3.13,False
LT_105-110_A9,True,119.0,120.0,1,-128.751862,-44.75124,136.307434,129.646094,51.905096,139.650451,500.0,0.894232,7.153856,27.26,False
LT_105-110_A9,True,119.0,120.0,2,-128.751862,-44.75124,136.307434,129.646094,51.905096,139.650451,500.0,0.894232,7.153856,27.26,False
LT_105-110_A9,True,120.0,123.0,1,-184.33609,-54.35865,192.183914,185.367311,61.920938,195.436032,500.0,1.031221,7.562287,38.44,False
LT_105-110_A9,True,120.0,123.0,2,-184.33609,-54.35865,192.183914,185.367311,61.920938,195.436032,500.0,1.031221,7.562287,38.44,False
LT_105-110_A9,True,121.0,122.0,34,-21.685453,-18.994421,28.827885,21.742776,19.427527,29.157797,500.0,0.057323,0.433106,5.77,False
LT_105-110_A9,True,121.0,325.0,1,364.59201,35.897263,366.35495,-347.868111,99.287598,361.759933,500.0,16.7239,135.18486,73.27,False
LT_105-110_A9,True,123.0,217.0,B3,236.06488,-1.86938,236.072281,-231.006269,39.303107,234.325907,500.0,5.058611,37.433727,47.21,False
LT_105-110_A9,True,201.0,202.0,B1,17.210464,-30.562475,35.075134,-17.197669,30.622187,35.120908,175.0,0.012795,0.059712,20.04,False
LT_105-110_A9,True,201.0,203.0,B2,-56.472141,26.850187,62.530273,58.923635,-17.445364,61.451896,175.0,2.451494,9.404823,35.73,False
LT_105-110_A9,True,201.0,205.0,B3,64.261696,-16.444988,66.33252,-63.205995,20.523833,66.454688,175.0,1.055701,4.078845,37.9,False
LT_105-110_A9,True,202.0,204.0,B4,33.647339,6.475446,34.264774,-33.214208,-4.808548,33.560479,175.0,0.433131,1.666898,19.58,False
LT_105-110_A9,True,202.0,206.0,B5,50.139343,-14.391452,52.163853,-48.681282,19.990407,52.625883,175.0,1.458061,5.598955,29.81,False
LT_105-110_A9,True,203.0,209.0,B6,113.2929,-33.185349,118.053162,-108.353761,52.145271,120.248355,175.0,4.939139,18.959923,67.46,False
LT_105-110_A9,True,203.0,224.0,B7,-183.644073,-17.594706,184.485016,184.427343,50.492033,191.214252,400.0,0.78327,32.897327,46.12,False
LT_105-110_A9,True,204.0,209.0,B8,-31.944769,-5.368455,32.392727,32.266323,6.607032,32.935823,175.0,0.321554,1.238577,18.51,False
LT_105-110_A9,True,205.0,210.0,B9,0.688006,-30.75602,30.763716,-0.465896,31.605834,31.609267,175.0,0.22211,0.849814,17.58,False
LT_105-110_A9,True,206.0,210.0,10,-71.070663,-131.799728,149.740463,71.893798,135.386245,153.291075,175.0,0.823135,3.586517,85.57,False
LT_105-110_A9,True,207.0,208.0,11,-0.06652,15.988317,15.988456,0.119117,-15.787792,15.788241,175.0,0.052597,0.200525,9.14,False
LT_105-110_A9,True,208.0,209.0,1,-86.112877,7.53345,86.441772,90.004047,7.397785,90.307562,175.0,3.891171,14.931234,49.4,False
LT_105-110_A9,True,208.0,210.0,2,-64.575104,-21.137848,67.946693,66.930079,30.174382,73.417497,175.0,2.354976,9.036534,38.83,False
LT_105-110_A9,True,209.0,211.0,14,-86.641685,-34.807632,93.372124,86.835736,42.95775,96.880407,400.0,0.19405,8.150118,23.34,False
LT_105-110_A9,True,209.0,212.0,15,-81.368011,-53.847961,97.572311,81.579913,62.747808,102.92021,400.0,0.211901,8.899847,24.39,False
LT_105-110_A9,True,210.0,211.0,16,-157.165833,12.740543,157.681381,157.681526,8.918568,157.933544,400.0,0.515693,21.659111,39.42,False
LT_105-110_A9,True,210.0,212.0,17,-152.895218,-7.275729,153.068237,153.381178,27.686053,155.859884,400.0,0.48596,20.410324,38.27,False
LT_105-110_A9,True,211.0,213.0,18,-60.144287,-95.102776,112.524986,60.874024,100.94067,117.875636,500.0,0.729737,5.837894,22.5,False
LT_105-110_A9,True,211.0,214.0,19,-184.373016,43.226467,189.372498,186.246574,-27.488584,188.264199,500.0,1.873558,15.737884,37.87,False
LT_105-110_A9,True,212.0,213.0,20,-70.354149,-61.218536,93.259933,70.840885,65.112424,96.218806,500.0,0.486736,3.893887,18.65,False
LT_105-110_A9,True,212.0,223.0,21,-164.60701,-29.215218,167.179535,167.902869,55.856741,176.950131,500.0,3.295859,26.641523,33.44,False
LT_105-110_A9,True,213.0,223.0,22,-149.494904,-3.565716,149.53743,151.809093,21.868854,153.376164,500.0,2.31419,18.303139,29.91,False
LT_105-110_A9,True,214.0,216.0,23,-357.06955,1.595535,357.073151,363.763183,77.389343,371.90424,500.0,6.693634,78.984879,71.41,False
LT_105-110_A9,True,215.0,216.0,24,330.001678,-64.888763,336.32077,-327.782466,83.752069,338.313101,500.0,2.219213,18.863306,67.26,False
LT_105-110_A9,True,215.0,221.0,1,-134.283188,-55.384136,145.256241,135.495045,65.280967,150.401169,500.0,1.211857,9.896831,29.05,False
LT_105-110_A9,True,215.0,221.0,2,-134.283188,-55.384136,145.256241,135.495045,65.280967,150.401169,500.0,1.211857,9.896831,29.05,False
LT_105-110_A9,True,215.0,224.0,26,187.132217,59.952988,196.501465,-184.427358,-39.859747,188.685585,500.0,2.704859,20.093241,39.3,False
LT_105-110_A9,True,216.0,217.0,27,-372.211548,-28.30843,373.286499,376.270511,63.486115,381.588763,500.0,4.058963,35.177685,74.66,False
LT_105-110_A9,True,216.0,219.0,28,403.177795,-58.637131,407.419495,-398.345747,95.682835,409.676139,500.0,4.832048,37.045704,81.48,False
LT_105-110_A9,True,217.0,218.0,29,-129.712219,-58.785595,142.411392,130.086548,61.405898,143.851292,500.0,0.374329,2.620303,28.48,False
LT_105-110_A9,True,217.0,222.0,30,-15.552078,-21.357298,26.419714,15.595371,21.681996,26.708136,500.0,0.043293,0.324698,5.28,False
LT_105-110_A9,True,218.0,221.0,1,-34.151276,15.98565,37.707436,34.19311,-15.623086,37.593212,500.0,0.041834,0.362564,7.54,False
LT_105-110_A9,True,218.0,221.0,2,-34.151276,15.98565,37.707436,34.19311,-15.623086,37.593212,500.0,0.041834,0.362564,7.54,False
LT_105-110_A9,True,219.0,220.0,1,119.484901,-61.598289,134.428375,-118.639981,68.357655,136.924118,500.0,0.844921,6.759365,26.89,False
LT_105-110_A9,True,219.0,220.0,2,119.484901,-61.598289,134.428375,-118.639981,68.357655,136.924118,500.0,0.844921,6.759365,26.89,False
LT_105-110_A9,True,220.0,223.0,1,62.285984,-71.028664,94.470177,-62.046714,72.783313,95.641023,500.0,0.23927,1.754649,18.89,False
LT_105-110_A9,True,220.0,223.0,2,62.285984,-71.028664,94.470177,-62.046714,72.783313,95.641023,500.0,0.23927,1.754649,18.89,False
LT_105-110_A9,True,221.0,222.0,34,15.623686,-17.621723,23.55047,-15.595371,17.835659,23.692326,500.0,0.028315,0.213936,4.71,False
LT_105-110_A9,True,223.0,318.0,1,134.38147,62.858303,148.356155,-131.591071,-40.53511,137.692792,500.0,2.790399,22.323193,29.67,False
LT_105-110_A9,True,301.0,302.0,C1,10.690517,-31.721773,33.474739,-10.683258,31.755653,33.504529,175.0,0.00726,0.033879,19.13,False
...
LT_106-110_10,True,101.0,102.0,A1,61.569138,54.127174,81.978714,-61.244235,-52.610961,80.738897,175.0,0.324903,1.516213,46.84,False
LT_106-110_10,True,101.0,103.0,A2,48.582554,-8.794773,49.372185,-47.033959,14.735744,49.28829,175.0,1.548594,5.940971,28.21,False
LT_106-110_10,True,101.0,105.0,A3,61.407352,-4.119034,61.545341,-60.431868,7.88795,60.944487,175.0,0.975484,3.768915,35.17,False
LT_106-110_10,True,102.0,104.0,A4,51.053474,-6.595057,51.477688,-50.004619,10.631561,51.122324,175.0,1.048855,4.036504,29.42,False
LT_106-110_10,True,102.0,106.0,A5,133.500244,141.20993,194.325897,-110.341404,-52.279976,122.100046,175.0,23.15884,88.929955,111.04,True
LT_106-110_10,True,103.0,109.0,A6,-33.543362,-1.220336,33.565552,33.958868,2.815344,34.07537,175.0,0.415506,1.595008,19.18,False
LT_106-110_10,True,103.0,124.0,A7,-73.229286,-40.305153,83.588478,73.39575,47.296632,87.31499,400.0,0.166464,6.991479,20.9,False
LT_106-110_10,True,104.0,109.0,A8,-13.220581,-20.652813,24.521877,13.404981,21.363095,25.220534,175.0,0.1844,0.710282,14.01,False
LT_106-110_10,True,105.0,110.0,A9,-0.230037,-17.906422,17.9079,0.308828,18.207881,18.2105,175.0,0.078791,0.30146,10.23,False
LT_106-110_10,True,107.0,108.0,11,92.647415,41.381077,101.468895,-90.864726,-34.584575,97.223924,175.0,1.782689,6.796502,57.98,False
LT_106-110_10,True,107.0,203.0,B1,155.535599,-1.50349,155.542877,-144.610464,43.383174,150.977767,175.0,10.925135,41.879684,88.88,False
LT_106-110_10,True,108.0,109.0,1,-24.744841,2.559287,24.876839,25.063493,-1.336553,25.099104,175.0,0.318652,1.222734,14.22,False
LT_106-110_10,True,108.0,110.0,2,-30.513382,3.633188,30.728922,30.998086,-1.773278,31.048765,175.0,0.484704,1.85991,17.56,False
LT_106-110_10,True,109.0,111.0,14,-88.00885,-16.484026,89.539268,88.194866,24.296711,91.480406,400.0,0.186016,7.812685,22.38,False
LT_106-110_10,True,109.0,112.0,15,-133.974533,-28.177177,136.905533,134.40941,46.441992,142.206709,400.0,0.434877,18.264814,34.23,False
LT_106-110_10,True,110.0,111.0,16,-76.026947,-16.228441,77.739685,76.166755,22.100374,79.308266,400.0,0.139808,5.871933,19.43,False
LT_106-110_10,True,110.0,112.0,17,-121.921791,-28.470331,125.201759,122.284424,43.700912,129.858577,400.0,0.362633,15.230581,31.3,False
LT_106-110_10,True,111.0,113.0,18,-260.030701,-18.793314,260.708954,264.553172,54.973082,270.204405,500.0,4.522471,36.179768,52.14,False
LT_106-110_10,True,111.0,114.0,19,95.648636,-27.596581,99.550156,-95.109203,32.127819,100.389029,500.0,0.539433,4.531239,19.91,False
LT_106-110_10,True,112.0,113.0,20,-181.148529,-7.04668,181.285538,183.26588,23.985485,184.828802,500.0,2.117351,16.938805,36.26,False
LT_106-110_10,True,112.0,123.0,21,-75.568687,-83.089874,112.314537,77.005383,94.703168,122.05949,500.0,1.436696,11.613294,22.46,False
LT_106-110_10,True,113.0,123.0,22,23.212141,-89.035919,92.011955,-22.4139,95.349281,97.948294,500.0,0.798241,6.313362,18.4,False
LT_106-110_10,True,113.0,215.0,B2,287.036194,-48.835316,291.160889,-278.298138,114.370739,300.8829,500.0,8.738056,65.535423,58.23,False
LT_106-110_10,True,114.0,116.0,23,-70.667175,-57.48307,91.094193,71.099317,62.582345,94.718862,500.0,0.432142,5.099275,18.22,False
LT_106-110_10,True,115.0,116.0,24,-115.295837,-25.487455,118.079391,115.580831,27.909903,118.902865,500.0,0.284994,2.422447,23.62,False
LT_106-110_10,True,115.0,121.0,1,-37.275333,3.610128,37.449745,37.365648,-2.872557,37.475902,500.0,0.090315,0.737571,7.49,False
LT_106-110_10,True,115.0,121.0,2,-37.275333,3.610128,37.449745,37.365648,-2.872557,37.475902,500.0,0.090315,0.737571,7.49,False
LT_106-110_10,True,115.0,124.0,26,73.958206,41.077442,84.600075,-73.409627,-37.002282,82.20792,500.0,0.548579,4.075161,16.92,False
LT_106-110_10,True,116.0,117.0,27,-6.004402,18.297354,19.257362,6.018933,-18.171413,19.142305,500.0,0.014532,0.12594,3.85,False
LT_106-110_10,True,116.0,119.0,28,-111.128548,-57.735107,125.231377,111.597641,61.331491,127.340431,500.0,0.469094,3.596383,25.05,False
LT_106-110_10,True,117.0,118.0,29,5.643358,39.600288,40.000378,-5.608117,-39.353597,39.751183,500.0,0.035242,0.246691,8.0,False
LT_106-110_10,True,117.0,122.0,30,-11.662289,-16.037498,19.829533,11.685797,16.213813,19.986135,500.0,0.023509,0.176315,3.97,False
LT_106-110_10,True,118.0,121.0,1,7.794054,-14.123476,16.13133,-7.788062,14.175409,16.173933,500.0,0.005992,0.051933,3.23,False
LT_106-110_10,True,118.0,121.0,2,7.794054,-14.123476,16.13133,-7.788062,14.175409,16.173933,500.0,0.005992,0.051933,3.23,False
LT_106-110_10,True,119.0,120.0,1,-133.133286,-44.019577,140.221939,134.081176,51.6027,143.66837,500.0,0.94789,7.583123,28.04,False
LT_106-110_10,True,119.0,120.0,2,-133.133286,-44.019577,140.221939,134.081176,51.6027,143.66837,500.0,0.94789,7.583123,28.04,False
LT_106-110_10,True,120.0,123.0,1,-188.771149,-54.058041,196.358902,189.848237,61.956689,199.702239,500.0,1.077088,7.898648,39.27,False
LT_106-110_10,True,120.0,123.0,2,-188.771149,-54.058041,196.358902,189.848237,61.956689,199.702239,500.0,1.077088,7.898648,39.27,False
LT_106-110_10,True,121.0,122.0,34,-21.955872,-18.956804,29.007254,22.014206,19.397555,29.340934,500.0,0.058335,0.440751,5.8,False
LT_106-110_10,True,121.0,325.0,1,362.800659,35.350418,364.518829,-346.24431,98.480072,359.977009,500.0,16.556349,133.83049,72.9,False
LT_106-110_10,True,123.0,217.0,B3,235.711761,-1.76282,235.718353,-230.668131,39.085688,233.956145,500.0,5.043631,37.322868,47.14,False
LT_106-110_10,True,201.0,202.0,B1,17.090086,-30.536947,34.993942,-17.077443,30.595948,35.03928,175.0,0.012643,0.059001,20.0,False
LT_106-110_10,True,201.0,203.0,B2,-56.22961,26.595968,62.202209,58.655575,-17.289087,61.150544,175.0,2.425964,9.306881,35.54,False
LT_106-110_10,True,201.0,205.0,B3,64.139557,-16.413858,66.206482,-63.087879,20.47716,66.327932,175.0,1.051678,4.063302,37.83,False
LT_106-110_10,True,202.0,204.0,B4,33.603939,6.448045,34.216984,-33.172024,-4.785825,33.515478,175.0,0.431915,1.66222,19.55,False
LT_106-110_10,True,202.0,206.0,B5,50.062477,-14.373761,52.085091,-48.608873,19.955599,52.54568,175.0,1.453604,5.581838,29.76,False
LT_106-110_10,True,203.0,209.0,B6,112.737968,-32.973377,117.461029,-107.851676,51.730434,119.616144,175.0,4.886292,18.757057,67.12,False
LT_106-110_10,True,203.0,224.0,B7,-185.277542,-16.668596,186.025833,186.073414,50.095224,192.698851,400.0,0.795872,33.426628,46.51,False
LT_106-110_10,True,204.0,209.0,B8,-31.986969,-5.390962,32.438076,32.309382,6.63285,32.983191,175.0,0.322413,1.241888,18.54,False
LT_106-110_10,True,205.0,210.0,B9,0.569881,-30.709373,30.714661,-0.348502,31.556388,31.558312,175.0,0.221379,0.847014,17.55,False
LT_106-110_10,True,206.0,210.0,10,-71.143112,-131.76236,149.741989,71.967645,135.354965,153.298103,175.0,0.824532,3.592605,85.57,False
LT_106-110_10,True,207.0,208.0,11,-0.065994,15.986999,15.987134,0.118579,-15.786519,15.786964,175.0,0.052585,0.20048,9.14,False
LT_106-110_10,True,208.0,209.0,1,-86.094009,7.493533,86.41951,89.982799,7.428567,90.288913,175.0,3.88879,14.9221,49.38,False
...